/*---------------------------------------------------------------------------*\
  =========                 |
  \\      /  F ield         | OpenFOAM: The Open Source CFD Toolbox
   \\    /   O peration     |
    \\  /    A nd           | Copyright held by the original author
     \\/     M anipulation  |
\*---------------------------------------------------------------------------*/
FoamFile
{
    version     2.0;
    format      ascii;
    class       dictionary;
    location    "constant";
    object      phaseProperties;
}
// * * * * * * * * * * * * * * * * * * * * * * * * * * * * * * * * * * * * * //

type    singlePhaseSystem;

phases (fuel);

LTS
{
    maxCo               0.9;
    maxAlphaCo          5;

    rDeltaTSmoothingCoeff 0.05;
    rDeltaTDampingCoeff 0.5;
    nAlphaSpreadIter    0;
    nAlphaSweepIter     0;
    maxDeltaT           1;
}

fuel
{
    type            reactingPhaseModel;
    diameterModel   isothermal;
    isothermalCoeffs
    {
        d0              3e-3;
        p0              1e5;
    }
    Sc              0.7;

    residualAlpha   1e-6;
}

water
{
    type            purePhaseModel;
    diameterModel constant;
    constantCoeffs
    {
        d               1.5e-4;
    }

    residualAlpha   1e-6;
}

blending
{
    default
    {
        type            linear;
        minFullyContinuousAlpha.fuel 0.7;
        minPartlyContinuousAlpha.fuel 0.3;
        minFullyContinuousAlpha.water 0.7;
        minPartlyContinuousAlpha.water 0.3;
    }

    heatTransfer
    {
        type            linear;
        minFullyContinuousAlpha.fuel 1;
        minPartlyContinuousAlpha.fuel 0;
        minFullyContinuousAlpha.water 1;
        minPartlyContinuousAlpha.water 0;
    }

    massTransfer
    {
        $heatTransfer;
    }
}

surfaceTension
(
    (fuel and water)
    {
        type            constant;
        sigma           0.07;
    }
);

aspectRatio
(
    (fuel in water)
    {
        type            constant;
        E0              1.0;
    }

    (water in fuel)
    {
        type            constant;
        E0              1.0;
    }
);

drag
(
    (fuel in water)
    {
        type            SchillerNaumann;
        residualRe      1e-3;
        swarmCorrection
        {
            type        none;
        }
    }

    (water in fuel)
    {
        type            SchillerNaumann;
        residualRe      1e-3;
        swarmCorrection
        {
            type        none;
        }
    }
);

virtualMass
(
//    (fuel in water)
//    {
//        type            constantCoefficient;
//        Cvm             0.5;
//    }
//
//    (water in fuel)
//    {
//        type            constantCoefficient;
//        Cvm             0.5;
//    }
);

interfaceComposition
(
    (fuel in water)
    {
        type saturated;
        species ( H2O );
        Le 1.0;
        saturationPressure
        {
            type ArdenBuck;
        }
    }
//
//    (water in fuel)
//    {
//        type Henry;
//        species ( H2O );
//        k ( 1.492e-2 );
//        Le 1.0;
//    }
);

heatTransfer.fuel
(
    (fuel in water)
    {
        type spherical;
        residualAlpha 1e-4;
    }

    (water in fuel)
    {
        type RanzMarshall;
        residualAlpha 1e-4;
    }
);

heatTransfer.water
(
    (fuel in water)
    {
        type RanzMarshall;
        residualAlpha 1e-4;
    }

    (water in fuel)
    {
        type spherical;
        residualAlpha 1e-4;
    }
);

massTransfer.fuel
(
    (fuel in water)
    {
        type spherical;
        Le 1.0;
    }

    (water in fuel)
    {
        type Frossling;
        Le 1.0;
    }
);

massTransfer.water
(
    (fuel in water)
    {
        type Frossling;
        Le 1.0;
    }

    (water in fuel)
    {
        type spherical;
        Le 1.0;
    }
);

phaseTransfer
(
);

lift
(
);

wallLubrication
(
);

turbulentDispersion
(
);

// Minimum allowable pressure
pMin            10000;

// ************************************************************************* //
