/*---------------------------------------------------------------------------*\
  =========                 |
  \\      /  F ield         | OpenFOAM: The Open Source CFD Toolbox
   \\    /   O peration     |
    \\  /    A nd           | Copyright held by the original author
     \\/     M anipulation  |
\*---------------------------------------------------------------------------*/
FoamFile
{
    version         2.0;
    format          ascii;
    class           dictionary;
    object          cellProperties;
}
// * * * * * * * * * * * * * * * * * * * * * * * * * * * * * * * * * * * * * //

//- Add information here

sigma
{
    bpp
    {
        sigmaModel      constantSigma;

        constantSigmaCoeffs
        {
            cellZone    bpp;
            sigma       20000;
        }
    }

    acl
    {
        sigmaModel      porousSigma;

        porousSigmaCoeffs
        {
            cellZone        acl;
            catalyst        no;
            porosity        0.3;
            sigma           5000;
        }
    }

    ampl
    {
        sigmaModel      porousSigma;

        porousSigmaCoeffs
        {
            cellZone        ampl;
            catalyst        no;
            porosity        0.4;
            sigma           8000;
        }
    }

    anode
    {
        sigmaModel      porousSigma;

        porousSigmaCoeffs
        {
            cellZone        anode;
            catalyst        no;
            porosity        0.7;
            sigma           8000;
        }
    }
}
