/*---------------------------------------------------------------------------*\
  =========                 |
  \\      /  F ield         | OpenFOAM: The Open Source CFD Toolbox
   \\    /   O peration     |
    \\  /    A nd           | Copyright held by the original author
     \\/     M anipulation  |
\*---------------------------------------------------------------------------*/

FoamFile
{
    version         2.0;
    format          ascii;
    class           dictionary;
    object          fvSolution;
}

// * * * * * * * * * * * * * * * * * * * * * * * * * * * * * * * * * * * * * //

solvers
{
    phi
    {
        solver          PCG;
        preconditioner
        {
            preconditioner  GAMG;
            tolerance       2e-09;
            relTol          0;
            smoother        DICGaussSeidel;
            nPreSweeps      1;
            nPostSweeps     2;
            nFinestSweeps   2;
            cacheAgglomeration on;
            nCellsInCoarsestLevel 10;
            agglomerator    faceAreaPair;
            mergeLevels     1;
        }
        tolerance       1e-10;
        relTol          0;
        maxIter         100;
    }

    U
    {
        solver           PBiCG;
        preconditioner   DILU;
        tolerance        1e-10;
        relTol           0.0;
        minIter          1;
        maxIter          700;
    }

    Yi
    {
        solver           PBiCG;
        preconditioner   DILU;
        tolerance        1e-10;
        relTol           0.0;
        minIter          1;
        maxIter          700;
    }
}

PHI
{
    phiRefCell        0;
    phiRefValue       0;
}

PISO
{
    nIteration      0;
    nCorrectors     1;
    nNonOrthogonalCorrectors 0;
    pRefCell        0;
    pRefValue       0;
}

relaxationFactors
{
    phi               1.0;
}


// ************************************************************************* //
