/*---------------------------------------------------------------------------*\
  =========                 |
  \\      /  F ield         | OpenFOAM: The Open Source CFD Toolbox
   \\    /   O peration     |
    \\  /    A nd           | Copyright held by the original author
     \\/     M anipulation  |
\*---------------------------------------------------------------------------*/
FoamFile
{
    version     2.0;
    format      ascii;
    class       dictionary;
    location    "constant";
    object      phaseProperties;
}
// * * * * * * * * * * * * * * * * * * * * * * * * * * * * * * * * * * * * * //

type          singlePhaseSystem;
//type          basicTwoPhaseSystem;

phases (air);

air
{
    type            reactingPhaseModel;
    diameterModel   isothermal;
    isothermalCoeffs
    {
        d0              1e-3;
        p0              1e5;
    }

    residualAlpha   1e-6;
}

// Minimum allowable pressure
pMin            10000;

// ************************************************************************* //
