/*---------------------------------------------------------------------------*\
  =========                 |
  \\      /  F ield         | OpenFOAM: The Open Source CFD Toolbox
   \\    /   O peration     |
    \\  /    A nd           | Copyright held by the original author
     \\/     M anipulation  |
\*---------------------------------------------------------------------------*/
FoamFile
{
    version     2.0;
    format      ascii;
    class       dictionary;
    object      topoSetDict;
}

// * * * * * * * * * * * * * * * * * * * * * * * * * * * * * * * * * * * * * //

actions
(
    {
        name    cathode;
        type    cellZoneSet;
        action  new;
        source  masterRegionToCell;
        sourceInfo
        {
            name cathode;
        }
    }

    {
        name    cmpl;
        type    cellZoneSet;
        action  new;
        source  masterRegionToCell;
        sourceInfo
        {
            name cmpl;
        }
    }

    {
        name    ccl;
        type    cellZoneSet;
        action  new;
        source  masterRegionToCell;
        sourceInfo
        {
            name ccl;
        }
    }

    {
        name    bpp;
        type    cellZoneSet;
        action  new;
        source  masterRegionToCell;
        sourceInfo
        {
            name interconnect;
        }
    }
);
// ************************************************************************* //
