/*---------------------------------------------------------------------------*\
  =========                 |
  \\      /  F ield         | OpenFOAM: The Open Source CFD Toolbox
   \\    /   O peration     |
    \\  /    A nd           | Copyright held by the original author
     \\/     M anipulation  |
\*---------------------------------------------------------------------------*/
FoamFile
{
    version     2.0;
    format      ascii;
    class       dictionary;
    object      topoSetDict;
}

// * * * * * * * * * * * * * * * * * * * * * * * * * * * * * * * * * * * * * //

actions
(
    {
        name    anode;
        type    cellZoneSet;
        action  new;
        source  masterRegionToCell;
        sourceInfo
        {
            name anode;
        }
    }
    {
        name    mpl;
        type    cellZoneSet;
        action  new;
        source  masterRegionToCell;
        sourceInfo
        {
            name ampl;
        }
    }
    {
        name    acl;
        type    cellZoneSet;
        action  new;
        source  masterRegionToCell;
        sourceInfo
        {
            name acl;
        }
    }
);
// ************************************************************************* //
