/*---------------------------------------------------------------------------*\
  =========                 |
  \\      /  F ield         | OpenFOAM: The Open Source CFD Toolbox
   \\    /   O peration     |
    \\  /    A nd           | openFuelCell
     \\/     M anipulation  |
\*---------------------------------------------------------------------------*/

FoamFile
{
    version         2.0;
    format          ascii;
    class           volScalarField;
    object          yH2O;
}

// * * * * * * * * * * * * * * * * * * * * * * * * * * * * * * * * * * * * * //


dimensions      [0 0 0 0 0 0 0];

internalField   uniform 0.3;

boundaryField
{
    airInlet
    {
        type            fixedValue;
        value           $internalField;
    }

    airOutlet
    {
        type            zeroGradient;
    }

    airSides
    {
        type            zeroGradient;
    }

    airInletSides
    {
        type            zeroGradient;
    }

    airOutletSides
    {
        type            zeroGradient;
    }

    cathodeSides
    {
        type            zeroGradient;
    }

    cflSides
    {
        type            zeroGradient;
    }

    air_to_electrolyte
    {
        type            fixedGradient;
        gradient        uniform 0;
    }

    air_to_interconnect //cathode
    {
        type            zeroGradient;
    }
}


// ************************************************************************* //
