/*---------------------------------------------------------------------------*\
| =========                 |                                                 |
| \\      /  F ield         | OpenFOAM: The Open Source CFD Toolbox           |
|  \\    /   O peration     | Version:  1.5                                   |
|   \\  /    A nd           | Web:      http://www.openfoam.org               |
|    \\/     M anipulation  |                                                 |
\*---------------------------------------------------------------------------*/

FoamFile
{
    version         2.0;
    format          ascii;
    class           volScalarField;
    object          yH2O;
}

// * * * * * * * * * * * * * * * * * * * * * * * * * * * * * * * * * * * * * //


dimensions      [0 0 0 0 0 0 0];

internalField   uniform 0.9;

boundaryField
{
    airInlet
    {
        type            fixedValue;
        value           uniform 1.0;
    }

    airOutlet
    {
        type            inletOutlet;
        inletValue      $internalField;
        value           $internalField;
    }

    airSides
    {
        type            zeroGradient;
    }

    airInletSides
    {
        type            zeroGradient;
    }

    airOutletSides
    {
        type            zeroGradient;
    }

    cathodeSides
    {
        type            zeroGradient;
    }

    cflSides
    {
        type            zeroGradient;
    }

    air_to_electrolyte
    {
        type            zeroGradient;
    }

    air_to_interconnect
    {
        type            zeroGradient;
    }
}


// ************************************************************************* //
