/*--------------------------------*- C++ -*----------------------------------*\
  =========                 |
  \\      /  F ield         | OpenFOAM: The Open Source CFD Toolbox
   \\    /   O peration     | Website:  https://openfoam.org
    \\  /    A nd           | Version:  6
     \\/     M anipulation  |
\*---------------------------------------------------------------------------*/
FoamFile
{
    version     2.0;
    format      ascii;
    class       volScalarField;
    location    "0/solid";
    object      T;
}
// * * * * * * * * * * * * * * * * * * * * * * * * * * * * * * * * * * * * * //

dimensions      [ 0 0 0 1 0 0 0 ];

internalField   uniform 343.15;

boundaryField
{
    interconnect0
    {
        type            fixedValue;
        value           $internalField;
    }
    interconnectSides
    {
        type            zeroGradient;
    }
    interconnect_to_air
    {
        type            zeroGradient;
    }
    interconnect_to_fuel
    {
        type            zeroGradient;
    }

    interconnect1
    {
        type            fixedValue;
        value           $internalField;
    }
}


// ************************************************************************* //
