/*---------------------------------------------------------------------------*\
  =========                 |
  \\      /  F ield         | OpenFOAM: The Open Source CFD Toolbox
   \\    /   O peration     |
    \\  /    A nd           | openFuelCell
     \\/     M anipulation  |
\*---------------------------------------------------------------------------*/
FoamFile
{
    version         2.0;
    format          ascii;
    class           dictionary;
    object          cellProperties;
}
// * * * * * * * * * * * * * * * * * * * * * * * * * * * * * * * * * * * * * //

//- Add information here

control           false;
relax             -4.0e-11;

dissolveOnOff   true;
dissolved
{
    type        none;

    noneCoeffs
    {
        region      phiI;
        nd          0.12;
        rhoOnEW     1964;

        ksi
        (
            acl 1.3
            ccl 1.3
        );

        relax 5.0e-4;
    }
}

sigma
{
    ccl
    {
        sigmaModel          constantSigma;

        constantSigmaCoeffs
        {
            cellZone            ccl;
            sigma               10;
        }
    }

    acl
    {
        sigmaModel          constantSigma;

        constantSigmaCoeffs
        {
            cellZone            acl;
            sigma               10;
        }
    }

    membrane
    {
        sigmaModel          constantSigma;

        constantSigmaCoeffs
        {
            cellZone            membrane;
            sigma               10;
        }
    }
}
