/*--------------------------------*- C++ -*----------------------------------*\
| =========                 |                                                 |
| \\      /  F ield         | OpenFOAM: The Open Source CFD Toolbox           |
|  \\    /   O peration     | Version:  v2106                                 |
|   \\  /    A nd           | Website:  www.openfoam.com                      |
|    \\/     M anipulation  |                                                 |
\*---------------------------------------------------------------------------*/
FoamFile
{
    version     2.0;
    format      ascii;
    arch        "LSB;label=32;scalar=64";
    class       volScalarField;
    location    "0";
    object      T;
}
// * * * * * * * * * * * * * * * * * * * * * * * * * * * * * * * * * * * * * //

dimensions      [0 0 0 1 0 0 0];

internalField   uniform 443.15;

boundaryField
{
    interconnect0
    {
        type            fixedValue;
        value           uniform 443.15;
    }
    interconnectSides
    {
        type            zeroGradient;
    }
    airInlet
    {
        type            fixedValue;
        value           uniform 443.15;
    }
    airOutlet
    {
        type            zeroGradient;
    }
    cathodeSides
    {
        type            zeroGradient;
    }
    electrolyteSides
    {
        type            zeroGradient;
    }
    anodeSides
    {
        type            zeroGradient;
    }
    fuelInlet
    {
        type            fixedValue;
        value           uniform 443.15;
    }
    fuelOutlet
    {
        type            zeroGradient;
    }
    interconnect1
    {
        type            fixedValue;
        value           uniform 443.15;
    }
}


// ************************************************************************* //
