/*---------------------------------------------------------------------------*\
  =========                 |
  \\      /  F ield         | OpenFOAM: The Open Source CFD Toolbox
   \\    /   O peration     |
    \\  /    A nd           | Copyright held by the original author
     \\/     M anipulation  |
\*---------------------------------------------------------------------------*/

FoamFile
{
    version         2.0;
    format          ascii;
    class           dictionary;
    object          fvSolution;
}

// * * * * * * * * * * * * * * * * * * * * * * * * * * * * * * * * * * * * * //

solvers
{
    phi
    {
        solver           GAMG;
        tolerance        1e-11;
        relTol           0;
        smoother         DIC;
        maxIter          100;
    }

    lambda
    {
        solver           PBiCGStab;
        preconditioner   DILU;
        tolerance        1e-11;
        relTol           0;
    }
}


PHI
{
    phiRefCell        0;
    phiRefValue       0;
}

PISO
{
    nIteration      0;
    nCorrectors    	1;
    nNonOrthogonalCorrectors 0;
    pRefCell        0;
    pRefValue       0;
}

relaxationFactors
{
//    lambda               0.8;
//    phi                 0.8;
}


// ************************************************************************* //
