/*---------------------------------------------------------------------------*\
  =========                 |
  \\      /  F ield         | OpenFOAM: The Open Source CFD Toolbox
   \\    /   O peration     |
    \\  /    A nd           | openFuelCell
     \\/     M anipulation  |
\*---------------------------------------------------------------------------*/
FoamFile
{
    version     2.0;
    format      ascii;
    class       dictionary;
    object      topoSetDict;
}

// * * * * * * * * * * * * * * * * * * * * * * * * * * * * * * * * * * * * * //

actions
(
    {
        name    anode;
        type    cellZoneSet;
        action  new;
        source  boxToCell;
        sourceInfo
        {
            box (-40 -12.0 -0.255e-3) (40.0 12.0 -0.055e-3);
        }
    }

    {
        name    mpl;
        type    cellZoneSet;
        action  new;
        source  boxToCell;
        sourceInfo
        {
            box (-40 -12.0 -0.055e-3) (40.0 12.0 -0.035e-3);
        }
    }

    {
        name    acl;
        type    cellZoneSet;
        action  new;
        source  boxToCell;
        sourceInfo
        {
            box (-40 -12.0 -0.035e-3) (40.0 12.0 -0.015e-3);
        }
    }
);
// ************************************************************************* //
