/*---------------------------------------------------------------------------*\
| =========                 |                                                 |
| \\      /  F ield         | OpenFOAM: The Open Source CFD Toolbox           |
|  \\    /   O peration     | Version:  1.5                                   |
|   \\  /    A nd           | Web:      http://www.openfoam.org               |
|    \\/     M anipulation  |                                                 |
\*---------------------------------------------------------------------------*/

FoamFile
{
    version         2.0;
    format          ascii;

    root            "";
    case            "";
    instance        "";
    local           "";
    
    class           volScalarField;
    object          p;
}

// * * * * * * * * * * * * * * * * * * * * * * * * * * * * * * * * * * * * * //


dimensions      [1 -1 -2 0 0 0 0];

internalField   uniform 1e5;

boundaryField
{

    fuelInlet
    {
        type               zeroGradient;
        value              $internalField;
    }

    fuelOutlet
    {
        type               fixedValue;
        value              $internalField;
    }

    fuelSides
    {
        type               zeroGradient;
        value              $internalField;
    }

    fuelInletSides
    {
        type               zeroGradient;
        value              $internalField;
    }

    fuelOutletSides
    {
        type               zeroGradient;
        value              $internalField;
    }

    anodeSides
    {
        type               zeroGradient;
        value              $internalField;
    }

    fuel_to_interconnect
    {
        type               zeroGradient;
        value              $internalField;
    }

    fuel_to_electrolyte //cathode
    {
        type               zeroGradient;
        value              $internalField;
    }
}


// ************************************************************************* //
