/*---------------------------------------------------------------------------*\
| =========                 |                                                 |
| \\      /  F ield         | OpenFOAM: The Open Source CFD Toolbox           |
|  \\    /   O peration     | Version:  1.5                                   |
|   \\  /    A nd           | Web:      http://www.openfoam.org               |
|    \\/     M anipulation  |                                                 |
\*---------------------------------------------------------------------------*/
FoamFile
{
    version         2.0;
    format          ascii;
    class           dictionary;
    object          cellProperties;
}
// * * * * * * * * * * * * * * * * * * * * * * * * * * * * * * * * * * * * * //

active      true;

dissolved
{
    type        none;

    noneCoeffs
    {
        region      phiI;
        nd          0.12;
        rhoOnEW     1964;

        ksi
        (
            acl 1.3
            ccl 1.3
        );

        relax 5.0e-4;
    }
}

galvanostatic
{
    active      true;
    region      phiEC;
    patchName   interconnect0;

    ibar 6000;
}

nx    24;
ny    2;

// ************************************************************************* //
